
 OpenBabel05242205053D

 13  9  0  0  0  0  0  0  0  0999 V2000
   -0.9217    0.3485   -0.5803 O   0  0  0  0  0  0  0  0  0  0  0  0
    0.0711    0.4741   -0.4638 H   0  0  0  0  0  0  0  0  0  0  0  0
   -1.1967   -0.3527    0.0898 H   0  0  0  0  0  0  0  0  0  0  0  0
   -1.3307    1.2198   -0.2826 H   0  0  0  0  0  0  0  0  0  0  0  0
    1.5438    0.7409   -0.2499 O   0  0  0  0  0  0  0  0  0  0  0  0
    2.2830    0.2128   -0.6285 H   0  0  0  0  0  0  0  0  0  0  0  0
    2.0651    1.4760    0.1414 H   0  0  0  0  0  0  0  0  0  0  0  0
   -1.7842    2.6099    0.1240 O   0  0  0  0  0  0  0  0  0  0  0  0
   -1.5096    3.4714   -0.2610 H   0  0  0  0  0  0  0  0  0  0  0  0
   -2.5385    2.9217    0.6735 H   0  0  0  0  0  0  0  0  0  0  0  0
   -1.6044   -1.4568    1.0479 O   0  0  0  0  0  0  0  0  0  0  0  0
   -1.1666   -1.9443    1.7800 H   0  0  0  0  0  0  0  0  0  0  0  0
   -2.4238   -1.9970    0.9732 H   0  0  0  0  0  0  0  0  0  0  0  0
  1  2  1  0  0  0  0
  1  3  1  0  0  0  0
  1  4  1  0  0  0  0
  5  6  1  0  0  0  0
  5  7  1  0  0  0  0
  8  9  1  0  0  0  0
  8 10  1  0  0  0  0
 11 12  1  0  0  0  0
 11 13  1  0  0  0  0
M  END
