@<TRIPOS>MOLECULE
*****
 13 9 0 0 0
SMALL
GASTEIGER

@<TRIPOS>ATOM
      1 O          -0.9217    0.3485   -0.5803 O.3     1  HOH1       -0.5062
      2 H           0.0711    0.4741   -0.4638 H       0  HOH0        0.1687
      3 H          -1.1967   -0.3527    0.0898 H       0  HOH0        0.1687
      4 H          -1.3307    1.2198   -0.2826 H       0  HOH0        0.1687
      5 O           1.5438    0.7409   -0.2499 O.3     2  HOH2       -0.4105
      6 H           2.2830    0.2128   -0.6285 H       0  HOH0        0.2052
      7 H           2.0651    1.4760    0.1414 H       0  HOH0        0.2052
      8 O          -1.7842    2.6099    0.1240 O.3     3  HOH3       -0.4105
      9 H          -1.5096    3.4714   -0.2610 H       0  HOH0        0.2052
     10 H          -2.5385    2.9217    0.6735 H       0  HOH0        0.2052
     11 O          -1.6044   -1.4568    1.0479 O.3     4  HOH4       -0.4105
     12 H          -1.1666   -1.9443    1.7800 H       0  HOH0        0.2052
     13 H          -2.4238   -1.9970    0.9732 H       0  HOH0        0.2052
@<TRIPOS>BOND
     1     1     2    1
     2     1     3    1
     3     1     4    1
     4     5     6    1
     5     5     7    1
     6     8     9    1
     7     8    10    1
     8    11    12    1
     9    11    13    1
